  Page 1                                    Tue Oct 29 16:45:41 2019

  ******************************************************************
  *                           E P A N E T                          *
  *                   Hydraulic and Water Quality                  *
  *                   Analysis for Pipe Networks                   *
  *                         Version 2.1                            *
  ******************************************************************
  
  Analysis begun Tue Oct 29 16:45:41 2019

  Analysis ended Tue Oct 29 16:46:40 2019
